[Format]      =  4.0
[Frequency]   =  0
[Precision]   =  1e-008
[MinAngle]    =  30
[Depth]       =  4
[LengthUnits] =  centimeters
[ProblemType] =  planar
[Coordinates] =  cartesian
[ACSolver]    =  0
[Comment]     =  "Add comments here."
[PointProps]   = 0
[BdryProps]   = 1
  <BeginBdry>
    <BdryName> = "A=0"
    <BdryType> = 0
    <A_0> = 0
    <A_1> = 0
    <A_2> = 0
    <Phi> = 0
    <c0> = 0
    <c0i> = 0
    <c1> = 0
    <c1i> = 0
    <Mu_ssd> = 0
    <Sigma_ssd> = 0
  <EndBdry>
[BlockProps]  = 3
  <BeginBlock>
    <BlockName> = "Magnet"
    <Mu_x> = 1.05
    <Mu_y> = 1.05
    <H_c> = 909456.81766797299
    <H_cAngle> = 0
    <J_re> = 0
    <J_im> = 0
    <Sigma> = 0
    <d_lam> = 0
    <Phi_h> = 0
    <Phi_hx> = 0
    <Phi_hy> = 0
    <LamType> = 0
    <LamFill> = 1
    <NStrands> = 0
    <WireD> = 0
    <BHPoints> = 0
  <EndBlock>
  <BeginBlock>
    <BlockName> = "Air"
    <Mu_x> = 1
    <Mu_y> = 1
    <H_c> = 0
    <H_cAngle> = 0
    <J_re> = 0
    <J_im> = 0
    <Sigma> = 0
    <d_lam> = 0
    <Phi_h> = 0
    <Phi_hx> = 0
    <Phi_hy> = 0
    <LamType> = 0
    <LamFill> = 1
    <NStrands> = 0
    <WireD> = 0
    <BHPoints> = 0
  <EndBlock>
  <BeginBlock>
    <BlockName> = "Steel"
    <Mu_x> = 5000
    <Mu_y> = 5000
    <H_c> = 0
    <H_cAngle> = 0
    <J_re> = 0
    <J_im> = 0
    <Sigma> = 0
    <d_lam> = 0
    <Phi_h> = 0
    <Phi_hx> = 0
    <Phi_hy> = 0
    <LamType> = 0
    <LamFill> = 1
    <NStrands> = 0
    <WireD> = 0
    <BHPoints> = 0
  <EndBlock>
[CircuitProps]  = 0
[NumPoints] = 20
2.6811555509164231	2.2497566339028872	0	2
-2.6811555509164231	-2.2497566339028872	0	2
2.987573328164014	2.5068716777775029	0	2
-2.987573328164014	-2.5068716777775029	0	2
4	0	0	0
-4	0	0	0
-2.6811555509164227	2.2497566339028872	0	2
2.6811555509164227	-2.2497566339028872	0	2
-2.9875733281640136	2.5068716777775029	0	2
2.9875733281640136	-2.5068716777775029	0	2
2.2497566339028872	2.6811555509164227	0	2
2.5068716777775029	2.9875733281640136	0	2
-2.5068716777775029	-2.9875733281640136	0	2
-2.2497566339028872	-2.6811555509164227	0	2
2.2497566339028872	-2.6811555509164231	0	2
2.506871677777502	-2.9875733281640136	0	2
-2.506871677777502	2.9875733281640136	0	2
-2.2497566339028872	2.6811555509164231	0	2
5	0	0	0
-5	6.1232339957367663e-016	0	0
[NumSegments] = 8
0	2	-1	0	0	0
7	9	-1	0	0	0
3	1	-1	0	0	0
8	6	-1	0	0	0
10	11	-1	0	0	0
12	13	-1	0	0	0
14	15	-1	0	0	0
16	17	-1	0	0	0
[NumArcSegments] = 16
0	10	10	1	0	0	0
17	6	10.000000000000004	1	0	0	0
6	1	80	1	0	0	0
1	13	10	1	0	0	0
14	7	10.000000000000004	1	0	0	0
7	0	80	1	0	0	0
11	16	80.000000000000043	1	0	0	0
8	3	80	1	0	0	0
12	15	80.000000000000043	1	0	0	0
9	2	80	1	0	0	0
4	5	180	1	0	0	0
5	4	180	1	0	0	0
10	17	80.000000000000043	1	0	0	0
13	14	80	1	0	0	0
18	19	180	1	1	0	0
19	18	180	1	1	0	0
[NumHoles] = 0
[NumBlockLabels] = 7
-0.26000000000000001	0.34000000000000002	3	-1	0	0	0	1	0
3.7000000000000002	0	1	-1	0	90	3	1	0
-3.7000000000000002	0	1	-1	0	90	3	1	0
2.2655965784226036e-016	3.7000000000000002	1	-1	0	90	3	1	0
-2.2655965784226036e-016	-3.7000000000000002	1	-1	0	90	3	1	0
0	4.4000000000000004	3	-1	0	0	0	1	0
2.5899999999999999	2.5899999999999999	2	-1	0	0	0	1	0
